Version 4
SHEET 1 3804 680
WIRE -576 -256 -576 -320
WIRE 16 -240 -128 -240
WIRE -32 -224 -32 -256
WIRE -128 -176 -128 -240
WIRE -96 -176 -128 -176
WIRE 16 -160 16 -240
WIRE 80 -160 16 -160
WIRE -576 -128 -576 -176
WIRE -576 -128 -704 -128
WIRE -32 -112 -32 -128
WIRE -32 -112 -224 -112
WIRE -576 -80 -576 -128
WIRE 288 -80 -48 -80
WIRE 416 -80 288 -80
WIRE 560 -80 496 -80
WIRE -224 -64 -224 -112
WIRE 560 -64 560 -80
WIRE -704 -48 -704 -128
WIRE -48 -32 -48 -80
WIRE 80 -16 80 -160
WIRE 80 -16 48 -16
WIRE -576 96 -576 0
WIRE -224 128 -224 16
WIRE -48 128 -48 0
WIRE -48 128 -224 128
WIRE -224 176 -224 128
WIRE -224 208 -224 176
WIRE -224 336 -224 288
FLAG -224 336 0
FLAG -32 -256 VCC
FLAG -704 -48 0
FLAG -576 -320 VCC
FLAG 0 -48 VCC
FLAG -576 96 VSS
FLAG 0 16 VSS
FLAG 560 -64 0
FLAG 288 -80 SF25
FLAG -224 176 Vce
SYMBOL res -240 -80 R0
SYMATTR InstName R
SYMATTR Value 10
SYMBOL Opamps\\tl082 0 -16 R0
SYMATTR InstName U1
SYMBOL npn -96 -224 R0
SYMATTR InstName Q2
SYMATTR Value 2N2222
SYMBOL voltage -576 -272 R0
WINDOW 123 0 0 Left 2
WINDOW 39 0 0 Left 2
SYMATTR InstName Vcc
SYMATTR Value 15
SYMBOL voltage -576 -96 R0
WINDOW 123 0 0 Left 2
WINDOW 39 0 0 Left 2
SYMATTR InstName Vss
SYMATTR Value 15
SYMBOL voltage 400 -80 R270
WINDOW 0 32 56 VTop 2
WINDOW 3 -32 56 VBottom 2
WINDOW 123 0 0 Left 2
WINDOW 39 0 0 Left 2
SYMATTR InstName F25
SYMATTR Value PULSE(0 10 0 2m 2m 0.000000001 4m 30)
SYMBOL current -224 208 R0
WINDOW 0 24 80 Left 2
WINDOW 3 24 0 Left 2
WINDOW 123 0 0 Left 2
WINDOW 39 0 0 Left 2
SYMATTR InstName I1
SYMATTR Value PWL(0m 0.0001m 5m 0.00001m 5.0000001m 10m 10m 10m 10.0000001m 20m 15m 20m 15.00000001m 30m 20m 30m 20.000000001m 40m 25m 40m 25.00000001m 50m 30m 50m 30.0000001m 60m 35m 60m 35.000000001m 70m 40m 70m 40.000001m 80m 45m 80m 45.000001m 90m 50m 90m 50.000001m 100m 55 100m)
TEXT -728 216 Left 2 !.tran 60m
TEXT -320 -432 Left 2 ;On ne peut pas mettre le courant initial que génère le générateur \nà 0mA, sinon le simulateur réalise des erreurs. On admet donc qu'il y a 0.000001pA.\nOn veut que Vce soit égal à SF25 quelque soit Ib
