Version 4
SHEET 1 4148 680
WIRE 672 -256 544 -256
WIRE 224 -208 32 -208
WIRE 544 -208 544 -256
WIRE 672 -192 672 -256
WIRE 224 -160 224 -208
WIRE 32 -96 32 -208
WIRE 224 -48 224 -80
WIRE 416 -48 224 -48
WIRE 544 -48 544 -128
WIRE 544 -48 496 -48
WIRE 224 -16 224 -48
WIRE 544 0 544 -48
WIRE 752 16 640 16
WIRE 880 16 752 16
WIRE -640 32 -640 -160
WIRE 224 96 224 64
WIRE 416 96 224 96
WIRE 544 96 544 32
WIRE 544 96 496 96
WIRE 224 128 224 96
WIRE -640 160 -640 112
WIRE -448 160 -640 160
WIRE 544 192 544 96
WIRE -448 208 -448 160
WIRE -640 224 -640 160
WIRE 224 240 224 208
WIRE 544 304 544 272
WIRE 752 304 752 16
WIRE 752 304 544 304
WIRE -640 480 -640 304
FLAG 224 240 0
FLAG 672 -192 0
FLAG 32 -96 0
FLAG -448 208 0
FLAG -640 -160 VCC
FLAG 592 -16 VCC
FLAG -640 480 VSS
FLAG 592 48 VSS
FLAG 880 16 Vs
FLAG 224 -48 Va
FLAG 224 96 Vc
SYMBOL res 208 -32 R0
SYMATTR InstName Rc
SYMATTR Value 10
SYMBOL res 400 -32 R270
WINDOW 0 32 56 VTop 2
WINDOW 3 0 56 VBottom 2
SYMATTR InstName R1b
SYMATTR Value 100k
SYMBOL res 400 112 R270
WINDOW 0 32 56 VTop 2
WINDOW 3 0 56 VBottom 2
SYMATTR InstName R1
SYMATTR Value 100k
SYMBOL Opamps\\tl082 592 16 R0
SYMATTR InstName U1
SYMBOL res 528 -224 R0
SYMATTR InstName R2
SYMATTR Value 1meg
SYMBOL res 528 176 R0
SYMATTR InstName R2b
SYMATTR Value 1meg
SYMBOL voltage 224 112 R0
WINDOW 123 0 0 Left 2
WINDOW 39 0 0 Left 2
SYMATTR InstName V1
SYMATTR Value PULSE(0 10 0 2m 2m 0.0000000000000001m 4m 20)
SYMBOL current 224 -160 R0
WINDOW 3 24 28 Left 2
WINDOW 123 0 0 Left 2
WINDOW 39 0 0 Left 2
SYMATTR Value PWL(0 0 5m 0 5.000001m 10m 10m 10m 10.00001m 20m 15m 20m 15.0000001m 30m 20m 30m 20.000001m 40m 25m 40m 25.000000001m 50m 30m 50m 30.000001m 60m 35m 60m 35.000001m 70m 40m 70m 40.000001m 80m 45m 80m 45.00000000000001m 90m 50m 90m 50.000000001m 100m)
SYMATTR InstName I1
SYMBOL voltage -640 16 R0
WINDOW 123 0 0 Left 2
WINDOW 39 0 0 Left 2
SYMATTR InstName Vcc
SYMATTR Value 15
SYMBOL voltage -640 208 R0
WINDOW 123 0 0 Left 2
WINDOW 39 0 0 Left 2
SYMATTR InstName Vss
SYMATTR Value 15
TEXT 144 400 Left 2 !.tran 60m
TEXT 1176 72 Left 2 ;On cherche à avoir en sortie s=10*(Va-Vc).\nOn peut voir sur la simulation que la fonction réalise bien la fonction souhaitée.\nLe générateur de courant simule le courant provenant de l'emetteur du\n transistor du générateur Vce. Le générateur de tension V1 simule la tension\ntriangulaire provenant du générateur Vce.
