Version 4
SHEET 1 3128 680
WIRE 640 -64 640 -112
WIRE -192 16 -240 16
WIRE -80 16 -128 16
WIRE -80 48 -80 16
WIRE 640 80 640 16
WIRE 928 80 640 80
WIRE -384 128 -432 128
WIRE -352 128 -384 128
WIRE -240 128 -240 16
WIRE -240 128 -288 128
WIRE -192 128 -240 128
WIRE -96 128 -128 128
WIRE -48 128 -96 128
WIRE 64 128 -48 128
WIRE -48 144 -48 128
WIRE 208 144 160 144
WIRE -432 160 -432 128
WIRE 64 160 16 160
WIRE 640 176 640 80
WIRE 928 176 928 80
WIRE -48 256 -48 208
WIRE -432 272 -432 240
WIRE 640 336 640 256
WIRE 16 352 16 160
WIRE 80 352 16 352
WIRE 208 352 208 144
WIRE 208 352 160 352
WIRE -96 384 -96 128
WIRE -96 384 -160 384
WIRE 16 384 16 352
WIRE -432 432 -448 432
WIRE -416 432 -432 432
WIRE -256 432 -336 432
WIRE -224 432 -256 432
WIRE -448 496 -448 432
WIRE 16 496 16 464
WIRE -160 560 -160 480
WIRE -256 576 -256 496
WIRE -448 640 -448 576
FLAG -80 48 0
FLAG -432 272 0
FLAG 16 496 0
FLAG -48 256 0
FLAG 640 -112 VCC
FLAG 112 112 VCC
FLAG 640 336 VSS
FLAG 112 176 VSS
FLAG 928 176 0
FLAG -256 576 0
FLAG -448 640 0
FLAG -160 560 0
FLAG 208 144 SF12
FLAG -384 128 SF11
FLAG -432 432 SF13
SYMBOL cap -352 144 R270
WINDOW 0 32 32 VTop 2
WINDOW 3 0 32 VBottom 2
SYMATTR InstName C1
SYMATTR Value 0.1n
SYMBOL cap -64 144 R0
SYMATTR InstName C2
SYMATTR Value 100n
SYMBOL diode -192 144 R270
WINDOW 0 32 32 VTop 2
WINDOW 3 0 32 VBottom 2
SYMATTR InstName D2
SYMATTR Value 1N4148
SYMBOL diode -128 0 R90
WINDOW 0 0 32 VBottom 2
WINDOW 3 32 32 VTop 2
SYMATTR InstName D1
SYMATTR Value 1N4148
SYMBOL voltage 640 -80 R0
WINDOW 123 0 0 Left 2
WINDOW 39 0 0 Left 2
SYMATTR InstName Vcc
SYMATTR Value 15
SYMBOL voltage 640 160 R0
WINDOW 123 0 0 Left 2
WINDOW 39 0 0 Left 2
SYMATTR InstName Vss
SYMATTR Value 15
SYMBOL voltage -432 144 R0
WINDOW 123 0 0 Left 2
WINDOW 39 0 0 Left 2
SYMATTR InstName SF11
SYMATTR Value PULSE(-14.189 14.189 0 0.00000001 0.00000001 2m 4m 0)
SYMBOL Opamps\\tl082 112 144 R0
SYMATTR InstName U1
SYMBOL res 32 480 R180
WINDOW 0 36 76 Left 2
WINDOW 3 36 40 Left 2
SYMATTR InstName R2
SYMATTR Value 100k
SYMBOL res -320 416 R90
WINDOW 0 0 56 VBottom 2
WINDOW 3 32 56 VTop 2
SYMATTR InstName R3
SYMATTR Value 10k
SYMBOL diode -240 496 R180
WINDOW 0 24 64 Left 2
WINDOW 3 24 0 Left 2
SYMATTR InstName D3
SYMATTR Value 1N4148
SYMBOL voltage -448 480 R0
WINDOW 123 0 0 Left 2
WINDOW 39 0 0 Left 2
SYMATTR InstName SF13
SYMATTR Value PULSE(-14.187 14.187 0 0.00000001 0.00000001 0.1m 40m 0)
SYMBOL npn -224 384 R0
SYMATTR InstName Q1
SYMATTR Value 2N2222
SYMBOL res 176 336 R90
WINDOW 0 0 56 VBottom 2
WINDOW 3 32 56 VTop 2
SYMATTR InstName R1
SYMATTR Value 3.5meg
TEXT 472 -136 Left 2 !.tran 80m
TEXT 1152 -16 Left 2 ;On veux qu'à chaque cycle de 10 périodes de l'entrée oscillo, la remise à zéro s'active\nafin de faire des escaliers de 10 marches de durée Toscillo.\nOn souhaite aussi que les marches aient le même pas de 1V. Pour cela il faut réduire la valeur\ndu condensateur C1 et en contrepartie amplifier plus avec le TL082.\nIci le pas des marches est de plus en plus petit, plus on se rapproche de 10 V.\n0.823 V entre les deux dernières marches, 0.892 V entre les deux premières. On va donc réduire la valeur de C1 et amplifier de manière plus conséquente.
TEXT 1176 320 Left 2 ;On passe donc la valeur de C1 à 0.1 nF. \nAprès simulation, on se rend compte que la valeur finale de l'escalier esst de 0.823 V.\nOn veut que cette valeur soit de 10 V. Il faut donc que le coefficient d'amplification ne soit plus de 3\nmais de 3*(10/0.823)= 36. On change donc les valeurs de R1 et R2.\n1+(R1/R2)= 36\nR1=35*R2\nOn garde R2 = 100k\nR1 = 3.5 M
