Version 4
SHEET 1 3212 680
WIRE -144 64 -144 -16
WIRE 192 96 176 96
WIRE 336 96 272 96
WIRE 448 96 336 96
WIRE -144 176 -144 144
WIRE -144 176 -208 176
WIRE 176 176 176 96
WIRE 448 176 448 96
WIRE 576 192 544 192
WIRE 624 192 576 192
WIRE 640 192 624 192
WIRE 272 208 240 208
WIRE 368 208 352 208
WIRE 448 208 368 208
WIRE -208 240 -208 176
WIRE 240 272 240 208
WIRE -144 288 -144 176
WIRE 368 320 368 208
WIRE 416 320 368 320
WIRE 448 320 416 320
WIRE 576 320 576 192
WIRE 576 320 528 320
WIRE 416 368 416 320
WIRE -144 416 -144 368
WIRE 416 480 416 448
FLAG -208 240 0
FLAG 416 480 0
FLAG -144 -16 VCC
FLAG 496 160 VCC
FLAG -144 416 VSS
FLAG 496 224 VSS
FLAG 240 272 VSS
FLAG 176 176 0
FLAG 336 96 E
FLAG 624 192 S
SYMBOL voltage -144 48 R0
WINDOW 3 24 152 Left 2
WINDOW 123 0 0 Left 2
WINDOW 39 24 124 Left 2
SYMATTR Value 15
SYMATTR InstName Vcc
SYMBOL voltage -144 272 R0
WINDOW 123 0 0 Left 2
WINDOW 39 0 0 Left 2
SYMATTR InstName Vss
SYMATTR Value 15
SYMBOL Opamps\\tl082 496 192 R0
SYMATTR InstName U1
SYMBOL res 544 304 R90
WINDOW 0 0 56 VBottom 2
WINDOW 3 32 56 VTop 2
SYMATTR InstName R1
SYMATTR Value 10k
SYMBOL res 432 464 R180
WINDOW 0 36 76 Left 2
WINDOW 3 36 40 Left 2
SYMATTR InstName R3
SYMATTR Value 14k
SYMBOL res 368 192 R90
WINDOW 0 0 56 VBottom 2
WINDOW 3 32 56 VTop 2
SYMATTR InstName R2
SYMATTR Value 33k
SYMBOL voltage 288 96 R90
WINDOW 0 -32 56 VBottom 2
WINDOW 3 32 56 VTop 2
WINDOW 123 0 0 Left 2
WINDOW 39 0 0 Left 2
SYMATTR InstName V3
SYMATTR Value PULSE(-2.5 2.5 0 2m 2m 0.00000001m 4m 20)
TEXT 456 -104 Left 2 !.tran 20m
TEXT 96 -296 Left 2 ;La fonction est un amplificateur non inverseur permettant d'amplifier le signal triangle\n de l'oscillateur. \nOn souhaite s = 2*e +5\nOn peut voir sur la simulation que l'amplitude du signal a été doublée,\n et que l'on a ajouté un offset de 5V. \nLes signaux d'entrée et de sortie sont en phase car le montage est un non inverseur.
