Version 4
SHEET 1 892 680
WIRE 464 16 384 16
WIRE 608 16 544 16
WIRE -32 96 -32 64
WIRE 176 128 160 128
WIRE 240 128 176 128
WIRE 384 128 384 16
WIRE 384 128 320 128
WIRE 432 128 384 128
WIRE 608 144 608 16
WIRE 608 144 528 144
WIRE 160 160 160 128
WIRE 432 160 384 160
WIRE -32 192 -32 176
WIRE -32 192 -160 192
WIRE -32 224 -32 192
WIRE -160 240 -160 192
WIRE 160 288 160 240
WIRE 240 304 208 304
WIRE 384 304 384 160
WIRE 384 304 320 304
WIRE 448 304 384 304
WIRE 576 304 528 304
WIRE 576 320 576 304
WIRE -80 384 -80 352
WIRE -32 384 -32 304
WIRE -32 384 -80 384
FLAG -160 240 0
FLAG 160 288 0
FLAG 576 320 0
FLAG -32 64 VCC
FLAG 480 112 VCC
FLAG 480 176 VSS
FLAG -80 352 VSS
FLAG 208 304 VCC
FLAG 608 144 S
FLAG 176 128 E
SYMBOL voltage -32 80 R0
WINDOW 123 0 0 Left 2
WINDOW 39 0 0 Left 2
SYMATTR InstName Vcc
SYMATTR Value 15
SYMBOL voltage -32 208 R0
WINDOW 123 0 0 Left 2
WINDOW 39 0 0 Left 2
SYMATTR InstName Vss
SYMATTR Value 15
SYMBOL voltage 160 144 R0
WINDOW 123 0 0 Left 2
WINDOW 39 0 0 Left 2
SYMATTR InstName V3
SYMATTR Value PULSE(-1 11 0 0.333333m 0.666666m 1u 1m)
SYMBOL res 224 144 R270
WINDOW 0 32 56 VTop 2
WINDOW 3 0 56 VBottom 2
SYMATTR InstName R1
SYMATTR Value 10k
SYMBOL res 224 320 R270
WINDOW 0 32 56 VTop 2
WINDOW 3 0 56 VBottom 2
SYMATTR InstName R3
SYMATTR Value 33k
SYMBOL res 432 320 R270
WINDOW 0 32 56 VTop 2
WINDOW 3 0 56 VBottom 2
SYMATTR InstName R4
SYMATTR Value 10k
SYMBOL res 448 32 R270
WINDOW 0 32 56 VTop 2
WINDOW 3 0 56 VBottom 2
SYMATTR InstName R2
SYMATTR Value 33k
SYMBOL Opamps\\tl082 480 144 R0
SYMATTR InstName U1
TEXT 40 8 Left 2 !.tran 8m
TEXT -248 -72 Left 2 ;Le générateur V3 simule la tension triangle provenant de la fonction adaptateur triangle.
