Version 4
SHEET 1 2864 680
WIRE -80 48 -80 -32
WIRE 224 48 192 48
WIRE 368 48 304 48
WIRE 176 128 160 128
WIRE 192 128 192 48
WIRE 192 128 176 128
WIRE 368 144 368 48
WIRE 368 144 288 144
WIRE 448 144 368 144
WIRE -80 160 -80 128
WIRE -80 160 -144 160
WIRE 176 160 160 160
WIRE 192 160 176 160
WIRE 80 192 80 128
WIRE -144 208 -144 160
WIRE -80 208 -80 160
WIRE 160 256 160 160
WIRE 192 256 160 256
WIRE 368 256 368 144
WIRE 368 256 272 256
WIRE 160 288 160 256
WIRE -80 352 -80 288
WIRE 160 368 160 352
FLAG 80 192 0
FLAG 160 368 0
FLAG -144 208 0
FLAG -80 -32 VCC
FLAG -80 352 VSS
FLAG 240 112 VCC
FLAG 240 176 VSS
FLAG 448 144 SF11
FLAG 176 128 V+
FLAG 176 160 V-
SYMBOL Opamps\\tl082 240 144 R0
SYMATTR InstName U1
SYMBOL res 64 144 R270
WINDOW 0 32 56 VTop 2
WINDOW 3 0 56 VBottom 2
SYMATTR InstName R2
SYMATTR Value 150k
SYMBOL res 208 64 R270
WINDOW 0 32 56 VTop 2
WINDOW 3 0 56 VBottom 2
SYMATTR InstName R1
SYMATTR Value 720k
SYMBOL res 176 272 R270
WINDOW 0 32 56 VTop 2
WINDOW 3 0 56 VBottom 2
SYMATTR InstName R
SYMATTR Value 86k
SYMBOL cap 144 288 R0
SYMATTR InstName C
SYMATTR Value 68n
SYMBOL voltage -80 32 R0
WINDOW 123 0 0 Left 2
WINDOW 39 0 0 Left 2
SYMATTR InstName Vcc
SYMATTR Value 15
SYMBOL voltage -80 192 R0
WINDOW 123 0 0 Left 2
WINDOW 39 0 0 Left 2
SYMATTR InstName Vss
SYMATTR Value 15
TEXT 568 224 Left 2 !.tran 30m startup
